Circuit: * C:\Users\User\Desktop\LTSPICE(1)\ask3.asc


Date: Sun Oct 30 18:45:47 2022
Total elapsed time: 0.066 seconds.

tnom = 27
temp = 27
method = trap
totiter = 2043
traniter = 0
tranpoints = 0
accept = 0
rejected = 0
matrix size = 26
fillins = 4
solver = Normal
Matrix Compiler1: 2.00 KB object code size  0.3/0.2/[0.2]
Matrix Compiler2: 2.06 KB object code size  0.2/0.2/[0.1]

